Circuit: * C:\Users\WINDOWS 10 PRO\Desktop\adp1071 final sim\750316825_transformer_pwm-NO_AUX.asc

C35: Increased Cpar to 1e-016
C2: Increased Cpar to 1e-011
C50: Increased Cpar to 2.2e-010
C67: Increased Cpar to 2.2e-010
C66: Increased Cpar to 1e-010
C7: Increased Cpar to 1e-011
C62: Increased Cpar to 2.2e-011
C58: Increased Cpar to 4.7e-016
C59: Increased Cpar to 4.7e-016
C60: Increased Cpar to 4.7e-016
C1: Increased Cpar to 2.2e-012
C24: Increased Cpar to 1e-011
C57: Increased Cpar to 1e-011
WARNING: Node 2 is floating.

WARNING: Less than two connections to node 1.  This node is used by R_AUX_IN.
WARNING: Less than two connections to node NC_01.  This node is used by R36.
WARNING: Less than two connections to node 2.  This node is used by L_AUX_IN.
Per .tran options, skipping operating point for transient analysis.
Heightened Def Con from 0.0205081 to 0.0205081

Date: Sun Feb 15 15:55:16 2026
Total elapsed time: 274.363 seconds.

tnom = 27
temp = 27
method = modified trap
totiter = 31988571
traniter = 31988571
tranpoints = 10162522
accept = 7386924
rejected = 2775599
matrix size = 41
fillins = 12
solver = Normal
Matrix Compiler1: 3.24 KB object code size  0.9/0.5/[0.3]
Matrix Compiler2: 3.43 KB object code size  0.4/0.7/[0.3]

